CN05_EXP_CURRENTS.CSV
Element, I1_1, Ang1_1, I1_2, Ang1_2, I1_3, Ang1_3, I1_4, Ang1_4, Iresid1, AngResid1, I2_1, Ang2_1, I2_2, Ang2_2, I2_3, Ang2_3, I2_4, Ang2_4, Iresid2, AngResid2
Vsource.SOURCE,    1298.35,   140.26,    1298.35,    20.26,    1298.35,   -99.74,          0,     0.00, 0.00010477,   102.14,    1298.35,   -39.74,    1298.35,  -159.74,    1298.35,    80.26,          0,     0.00, 0.00010477,   -77.86
Line.L_CEI_MT_10922A2981,    1298.35,   -39.74,    1298.35,  -159.74,    1298.35,    80.26,          0,     0.00, 0.000104618,   -78.34,    1298.35,   140.26,    1298.35,    20.26,    1298.35,   -99.74,          0,     0.00, 0.000104618,   101.66
Line.L_CEI_MT_10923A6507,    1274.27,   -39.70,    1274.27,  -159.70,    1274.27,    80.30,          0,     0.00, 0.000103488,   -78.03,    1274.27,   140.30,    1274.27,    20.30,    1274.27,   -99.70,          0,     0.00, 0.000103486,   101.97
Line.L_CEI_MT_10924A2983,    1274.27,   140.30,    1274.27,    20.30,    1274.27,   -99.70,          0,     0.00, 0.000103489,   101.98,    1274.27,   -39.70,    1274.27,  -159.70,    1274.27,    80.30,          0,     0.00, 0.00010349,   -78.03
Line.L_CEI_MT_10925A2984,    1274.27,   140.30,    1274.27,    20.30,    1274.27,   -99.70,          0,     0.00, 0.000103492,   101.97,    1274.27,   -39.70,    1274.27,  -159.70,    1274.27,    80.30,          0,     0.00, 0.000103494,   -78.03
Line.L_CEI_MT_10926A2985,    1274.27,   140.30,    1274.27,    20.30,    1274.27,   -99.70,          0,     0.00, 0.00010349,   101.97,    1274.27,   -39.70,    1274.27,  -159.70,    1274.27,    80.30,          0,     0.00, 0.000103492,   -78.03
Line.L_CEI_MT_10927A6511,    1274.27,   140.30,    1274.27,    20.30,    1274.27,   -99.70,          0,     0.00, 0.000102345,   102.29,    1274.27,   -39.70,    1274.27,  -159.70,    1274.27,    80.30,          0,     0.00, 0.000102346,   -77.71
Line.L_CEI_MT_10928A2987,    1258.23,   140.32,    1258.23,    20.32,    1258.23,   -99.68,          0,     0.00, 0.000102362,   102.29,    1258.23,   -39.68,    1258.23,  -159.68,    1258.23,    80.32,          0,     0.00, 0.000102357,   -77.71
Line.L_CEI_MT_10929A2988,    1258.23,   140.32,    1258.23,    20.32,    1258.23,   -99.68,          0,     0.00, 0.000102361,   102.29,    1258.23,   -39.68,    1258.23,  -159.68,    1258.23,    80.32,          0,     0.00, 0.000102362,   -77.71
Line.L_CEI_MT_10930A2989,    1258.23,   140.32,    1258.23,    20.32,    1258.23,   -99.68,          0,     0.00, 0.000102361,   102.28,    1258.23,   -39.68,    1258.23,  -159.68,    1258.23,    80.32,          0,     0.00, 0.000102362,   -77.71
Line.L_CEI_MT_10931A2990,    1258.23,   140.32,    1258.23,    20.32,    1258.23,   -99.68,          0,     0.00, 0.000102366,   102.29,    1258.23,   -39.68,    1258.23,  -159.68,    1258.23,    80.32,          0,     0.00, 0.000102363,   -77.72
Line.L_CEI_MT_10932A6516,    1258.23,   140.32,    1258.23,    20.32,    1258.23,   -99.68,          0,     0.00, 0.000101223,   102.60,    1258.23,   -39.68,    1258.23,  -159.68,    1258.23,    80.32,          0,     0.00, 0.000101222,   -77.40
Line.L_CEI_MT_10933A6517,    1242.22,   -39.66,    1242.22,  -159.66,    1242.22,    80.34,          0,     0.00, 0.000101239,   -77.39,    1242.22,   140.34,    1242.22,    20.34,    1242.22,   -99.66,          0,     0.00, 0.000101242,   102.61
Line.L_CEI_MT_10934A6518,    1242.22,   140.34,    1242.22,    20.34,    1242.22,   -99.66,          0,     0.00, 0.000101245,   102.61,    1242.22,   -39.66,    1242.22,  -159.66,    1242.22,    80.34,          0,     0.00, 0.000101242,   -77.39
Line.L_CEI_MT_10935A2994,    1242.22,   140.34,    1242.22,    20.34,    1242.22,   -99.66,          0,     0.00, 0.000101239,   102.61,    1242.22,   -39.66,    1242.22,  -159.66,    1242.22,    80.34,          0,     0.00, 0.000101241,   -77.39
Line.L_CEI_MT_10936A2995,    1242.22,   140.34,    1242.22,    20.34,    1242.22,   -99.66,          0,     0.00, 0.000101247,   102.61,    1242.22,   -39.66,    1242.22,  -159.66,    1242.22,    80.34,          0,     0.00, 0.000101247,   -77.40
Line.L_CEI_MT_10937A2996,    1242.22,   -39.66,    1242.22,  -159.66,    1242.22,    80.34,          0,     0.00, 0.000100104,   -77.07,    1242.22,   140.34,    1242.22,    20.34,    1242.22,   -99.66,          0,     0.00, 0.000100105,   102.93
Line.L_CEI_MT_10938A2997,    1226.23,   140.37,    1226.23,    20.37,    1226.23,   -99.63,          0,     0.00, 0.000100123,   102.93,    1226.23,   -39.63,    1226.23,  -159.63,    1226.23,    80.37,          0,     0.00, 0.000100125,   -77.07
Line.L_CEI_MT_10939A2998,    471.402,   138.56,    471.402,    18.56,    471.402,  -101.44,          0,     0.00, 4.86869E-005,   103.62,    471.402,   -41.44,    471.402,  -161.44,    471.402,    78.56,          0,     0.00, 4.86878E-005,   -76.38
Line.L_CEI_MT_10940A6524,    471.402,   138.56,    471.402,    18.56,    471.402,  -101.44,          0,     0.00, 4.61103E-005,    97.57,    471.402,   -41.44,    471.402,  -161.44,    471.402,    78.56,          0,     0.00, 4.61106E-005,   -82.44
Line.L_CEI_MT_10941A6525,    471.402,   -41.44,    471.402,  -161.44,    471.402,    78.56,          0,     0.00, 4.6112E-005,   -82.42,    471.402,   138.56,    471.402,    18.56,    471.402,  -101.44,          0,     0.00, 4.6109E-005,    97.58
Line.L_CEI_MT_10942A3001,    471.402,   -41.44,    471.402,  -161.44,    471.402,    78.56,          0,     0.00, 4.61064E-005,   -82.43,    471.402,   138.56,    471.402,    18.56,    471.402,  -101.44,          0,     0.00, 4.61065E-005,    97.57
Line.L_CEI_MT_10943A3002,    471.402,   -41.44,    471.402,  -161.44,    471.402,    78.56,          0,     0.00, 4.61067E-005,   -82.43,    471.402,   138.56,    471.402,    18.56,    471.402,  -101.44,          0,     0.00, 4.6104E-005,    97.57
Line.L_CEI_MT_10944A3003,    479.396,   -41.44,    479.396,  -161.44,    479.396,    78.56,          0,     0.00, 4.60971E-005,   -82.43,    479.396,   138.56,    479.396,    18.56,    479.396,  -101.44,          0,     0.00, 4.60967E-005,    97.57
Line.L_CEI_MT_10945A3004,    479.396,   -41.44,    479.396,  -161.44,    479.396,    78.56,          0,     0.00, 4.60945E-005,   -82.43,    479.396,   138.56,    479.396,    18.56,    479.396,  -101.44,          0,     0.00, 4.60945E-005,    97.57
Line.L_CEI_MT_10946A6530,    479.396,   -41.44,    479.396,  -161.44,    479.396,    78.56,          0,     0.00, 4.60959E-005,   -82.44,    479.396,   138.56,    479.396,    18.56,    479.396,  -101.44,          0,     0.00, 4.60965E-005,    97.56
Line.L_CEI_MT_10947A6531,    479.396,   -41.44,    479.396,  -161.44,    479.396,    78.56,          0,     0.00, 4.60937E-005,   -82.43,    479.396,   138.56,    479.396,    18.56,    479.396,  -101.44,          0,     0.00, 4.60926E-005,    97.57
Line.L_CEI_MT_14554AA3502, 1.91997E-009,    75.96, 2.71525E-009,    59.04, 1.91997E-009,    75.96,          0,     0.00, 6.48591E-009,    68.96, 2.79397E-009,   -90.00, 2.32831E-009,   -90.00, 2.0825E-009,  -116.57,          0,     0.00, 7.04673E-009,   -97.59
Line.L_CEI_MT_10948A6532,    20.7936,   138.54,    20.7936,    18.54,    20.7936,  -101.46,          0,     0.00, 1.2659E-006,    75.34,    20.7936,   -41.46,    20.7936,  -161.46,    20.7936,    78.54,          0,     0.00, 1.26343E-006,  -104.73
Line.L_CEI_MT_10949A3008,    20.7936,   138.54,    20.7936,    18.54,    20.7936,  -101.46,          0,     0.00, 1.25512E-006,    75.12,    20.7936,   -41.46,    20.7936,  -161.46,    20.7936,    78.54,          0,     0.00, 1.2541E-006,  -104.87
Line.L_CEI_MT_10950A6534,     15.995,   138.54,     15.995,    18.54,     15.995,  -101.46,          0,     0.00, 1.26461E-006,    75.56,     15.995,   -41.46,     15.995,  -161.46,     15.995,    78.54,          0,     0.00, 1.26383E-006,  -104.47
Line.L_CEI_MT_10951A6535,    726.455,   141.61,    726.455,    21.61,    726.455,   -98.39,          0,     0.00, 5.2766E-005,   109.96,    726.455,   -38.39,    726.455,  -158.39,    726.455,    81.61,          0,     0.00, 5.27639E-005,   -70.04
Line.L_CEI_MT_10952A6536,    726.455,   141.61,    726.455,    21.61,    726.455,   -98.39,          0,     0.00, 5.27622E-005,   109.96,    726.455,   -38.39,    726.455,  -158.39,    726.455,    81.61,          0,     0.00, 5.27578E-005,   -70.04
Line.L_CEI_MT_10953A6537,    726.455,   141.61,    726.455,    21.61,    726.455,   -98.39,          0,     0.00, 5.27622E-005,   109.95,    726.455,   -38.39,    726.455,  -158.39,    726.455,    81.61,          0,     0.00, 5.27608E-005,   -70.04
Line.L_CEI_MT_10954A6538,    726.455,   141.61,    726.455,    21.61,    726.455,   -98.39,          0,     0.00, 5.276E-005,   109.96,    726.455,   -38.39,    726.455,  -158.39,    726.455,    81.61,          0,     0.00, 5.27641E-005,   -70.04
Line.L_CEI_MT_10955A6886,    726.455,   141.61,    726.455,    21.61,    726.455,   -98.39,          0,     0.00, 5.27665E-005,   109.95,    726.455,   -38.39,    726.455,  -158.39,    726.455,    81.61,          0,     0.00, 5.27678E-005,   -70.04
Line.L_CEI_MT_10956A3362,    721.668,   141.63,    721.668,    21.63,    721.668,   -98.37,          0,     0.00, 5.17634E-005,   108.72,    721.668,   -38.37,    721.668,  -158.37,    721.668,    81.63,          0,     0.00, 5.17592E-005,   -71.28
Line.L_CEI_MT_10959A6539,    4.79319,   138.55,    4.79319,    18.55,    4.79319,  -101.45,          0,     0.00, 5.68412E-009,   -34.99,    4.79319,   -41.45,    4.79319,  -161.45,    4.79319,    78.55,          0,     0.00, 6.98492E-009,   143.13
Line.L_CEI_MT_10960A6540, 1.91997E-009,   -75.96, 2.98169E-009,  -141.34, 2.32831E-009,   126.87,          0,     0.00, 3.75428E-009,  -150.26, 1.47255E-009,    18.43, 2.32831E-009,     0.00, 1.91997E-009,   -75.96,          0,     0.00, 4.41765E-009,   -18.43
Line.L_CEI_MT_10961A6541,    7.98643,   -41.45,    7.98643,  -161.45,    7.98643,    78.55,          0,     0.00, 1.49955E-008,   115.77,    7.98643,   138.55,    7.98643,    18.55,    7.98643,  -101.45,          0,     0.00, 1.47255E-008,   -71.57
Line.L_CEI_MT_10962A6542,    716.882,   141.65,    716.882,    21.65,    716.882,   -98.35,          0,     0.00, 5.20731E-005,   109.40,    716.882,   -38.35,    716.882,  -158.35,    716.882,    81.65,          0,     0.00, 5.20727E-005,   -70.60
Line.L_CEI_MT_10963A3018,    716.882,   141.65,    716.882,    21.65,    716.882,   -98.35,          0,     0.00, 5.20596E-005,   109.40,    716.882,   -38.35,    716.882,  -158.35,    716.882,    81.65,          0,     0.00, 5.20545E-005,   -70.60
Line.L_CEI_MT_10964A6923,    4.79319,   -41.45,    4.79319,  -161.45,    4.79319,    78.55,          0,     0.00, 7.01681E-007,   173.45,    4.79319,   138.55,    4.79319,    18.55,    4.79319,  -101.45,          0,     0.00, 6.9855E-007,    -6.66
Line.L_CEI_MT_10965A6544,    721.668,   141.63,    721.668,    21.63,    721.668,   -98.37,          0,     0.00, 5.17507E-005,   108.71,    721.668,   -38.37,    721.668,  -158.37,    721.668,    81.63,          0,     0.00, 5.17464E-005,   -71.29
Line.L_CEI_MT_10966A3020, 2.0825E-009,  -153.43, 6.58545E-010,   -45.00, 1.39698E-009,   180.00,          0,     0.00, 3.12375E-009,  -153.43, 4.65661E-010,    90.00, 2.0825E-009,   116.57, 9.31323E-010,     0.00,          0,     0.00, 2.32831E-009,    90.00
Line.L_CEI_MT_10967A3021,    708.907,   -38.31,    708.907,  -158.31,    708.907,    81.69,          0,     0.00, 5.07791E-005,   -70.69,    708.907,   141.69,    708.907,    21.69,    708.907,   -98.31,          0,     0.00, 5.07764E-005,   109.31
Line.L_CEI_MT_10968A6547,    708.907,   141.69,    708.907,    21.69,    708.907,   -98.31,          0,     0.00, 5.07832E-005,   109.30,    708.907,   -38.31,    708.907,  -158.31,    708.907,    81.69,          0,     0.00, 5.07843E-005,   -70.70
Line.L_CEI_MT_10969A3023,    708.907,   141.69,    708.907,    21.69,    708.907,   -98.31,          0,     0.00, 5.07824E-005,   109.30,    708.907,   -38.31,    708.907,  -158.31,    708.907,    81.69,          0,     0.00, 5.07818E-005,   -70.70
Line.L_CEI_MT_10970A3024,    708.907,   141.69,    708.907,    21.69,    708.907,   -98.31,          0,     0.00, 5.07837E-005,   109.30,    708.907,   -38.31,    708.907,  -158.31,    708.907,    81.69,          0,     0.00, 5.07834E-005,   -70.70
Line.L_CEI_MT_10971A3025,    708.907,   141.69,    708.907,    21.69,    708.907,   -98.31,          0,     0.00, 5.07897E-005,   109.29,    708.907,   -38.31,    708.907,  -158.31,    708.907,    81.69,          0,     0.00, 5.07856E-005,   -70.71
Line.L_CEI_MT_10972A3026,    708.907,   141.69,    708.907,    21.69,    708.907,   -98.31,          0,     0.00, 5.0786E-005,   109.29,    708.907,   -38.31,    708.907,  -158.31,    708.907,    81.69,          0,     0.00, 5.07834E-005,   -70.71
Line.L_CEI_MT_10973A6552,    2.12796,   138.56,    2.12796,    18.56,    2.12796,  -101.44,          0,     0.00, 6.0536E-009,    22.62,    2.12796,   -41.44,    2.12796,  -161.44,    2.12796,    78.56,          0,     0.00, 7.00042E-009,   176.19
Line.L_CEI_MT_10974A6925,    2.12796,   138.56,    2.12796,    18.56,    2.12796,  -101.44,          0,     0.00, 5.01533E-009,   -68.20,    2.12796,   -41.44,    2.12796,  -161.44,    2.12796,    78.56,          0,     0.00, 8.39483E-009,   109.44
Line.L_CEI_MT_10975A6926,    2.12796,   138.56,    2.12796,    18.56,    2.12796,  -101.44,          0,     0.00, 4.79428E-009,    29.05,    2.12796,   -41.44,    2.12796,  -161.44,    2.12796,    78.56,          0,     0.00, 4.21674E-009,  -173.66
Line.L_CEI_MT_10976A3028,    706.782,   141.69,    706.782,    21.69,    706.782,   -98.31,          0,     0.00, 4.94902E-005,   109.20,    706.782,   -38.31,    706.782,  -158.31,    706.782,    81.69,          0,     0.00, 4.94898E-005,   -70.80
Line.L_CEI_MT_10977A3029,    706.782,   141.69,    706.782,    21.69,    706.782,   -98.31,          0,     0.00, 4.94919E-005,   109.19,    706.782,   -38.31,    706.782,  -158.31,    706.782,    81.69,          0,     0.00, 4.94918E-005,   -70.80
Line.L_CEI_MT_10978A6555, 4.65661E-010,    90.00, 2.32831E-009,  -143.13, 3.72529E-009,   -90.00,          0,     0.00, 5.01533E-009,  -111.80,          0,     0.00, 2.83251E-009,     9.46,          0,     0.00,          0,     0.00, 2.83251E-009,     9.46
Line.L_CEI_MT_10979A3031,    4.78592,   138.56,    4.78592,    18.56,    4.78592,  -101.44,          0,     0.00, 3.45854E-007,  -164.30,    4.78592,   -41.44,    4.78592,  -161.44,    4.78592,    78.56,          0,     0.00, 3.4713E-007,    15.88
Line.L_CEI_MT_12356A6989,    49.4929,   138.56,    49.4929,    18.56,    49.4929,  -101.44,          0,     0.00, 3.46833E-006,   169.82,    49.4929,   -41.44,    49.4929,  -161.44,    49.4929,    78.56,          0,     0.00, 3.46804E-006,   -10.19
Line.L_CEI_MT_12357A6990,    49.4929,   -41.44,    49.4929,  -161.44,    49.4929,    78.56,          0,     0.00, 3.47058E-006,   -10.21,    49.4929,   138.56,    49.4929,    18.56,    49.4929,  -101.44,          0,     0.00, 3.47291E-006,   169.84
Line.L_CEI_MT_12358A6991,    44.7032,   138.56,    44.7032,    18.56,    44.7032,  -101.44,          0,     0.00, 2.02407E-006,   179.01,    44.7032,   -41.44,    44.7032,  -161.44,    44.7032,    78.56,          0,     0.00, 2.02131E-006,    -1.06
Line.L_CEI_MT_12359A3449,    4.78968,   138.56,    4.78968,    18.56,    4.78968,  -101.44,          0,     0.00, 1.50928E-006,   157.53,    4.78968,   -41.44,    4.78968,  -161.44,    4.78968,    78.56,          0,     0.00, 1.50842E-006,   -22.49
Line.L_CEI_MT_12360A3450, 1.67897E-009,   -56.31, 2.9451E-009,  -108.43, 2.0825E-009,  -116.57,          0,     0.00, 6.12482E-009,   -98.75, 1.91997E-009,   104.04, 3.39007E-009,    74.05, 2.0825E-009,   116.57,          0,     0.00, 7.00042E-009,    93.81
Line.L_CEI_MT_12361A6994, 6.58545E-010,   -45.00, 1.97563E-009,   135.00, 2.63418E-009,   135.00,          0,     0.00, 3.95127E-009,   135.00, 1.04125E-009,    26.57, 2.32831E-009,   -36.87, 2.0825E-009,   -63.43,          0,     0.00, 4.65661E-009,   -36.87
Line.L_CEI_MT_12362A6995, 2.0825E-009,    26.57, 4.29318E-009,   -12.53,          0,     0.00,          0,     0.00, 6.0536E-009,     0.00, 1.31709E-009,  -135.00, 1.67897E-009,   146.31, 1.86265E-009,   180.00,          0,     0.00, 4.19095E-009,   180.00
Line.L_CEI_MT_12363A6688, 1.04125E-009,   153.43, 2.98169E-009,    51.34, 4.65661E-010,   180.00,          0,     0.00, 2.83251E-009,    80.54, 3.83994E-009,    14.04, 1.67897E-009,   -56.31, 4.65661E-010,   180.00,          0,     0.00, 4.21674E-009,    -6.34
Line.L_CEI_MT_12364A6689, 3.12375E-009,    63.43, 3.83994E-009,    14.04, 3.83994E-009,    75.96,          0,     0.00, 9.59985E-009,    50.91, 1.04125E-009,  -116.57, 1.91997E-009,  -165.96, 3.83994E-009,  -104.04,          0,     0.00, 6.07148E-009,  -122.47
Line.L_CEI_MT_12365A3165,    7.98144,   -41.44,    7.98144,  -161.44,    7.98144,    78.56,          0,     0.00, 1.40086E-008,   111.45,    7.98144,   138.56,    7.98144,    18.56,    7.98144,  -101.44,          0,     0.00, 1.64636E-008,   -61.26
Line.L_CEI_MT_12366A3166,    7.98144,   -41.44,    7.98144,  -161.44,    7.98144,    78.56,          0,     0.00, 1.84216E-008,   106.14,    7.98144,   138.56,    7.98144,    18.56,    7.98144,  -101.44,          0,     0.00, 2.22594E-008,   -74.22
Line.L_CEI_MT_12367A6692,    7.98144,   -41.44,    7.98144,  -161.44,    7.98144,    78.56,          0,     0.00, 1.87714E-008,    97.13,    7.98144,   138.56,    7.98144,    18.56,    7.98144,  -101.44,          0,     0.00, 1.89095E-008,   -80.07
Line.L_CEI_MT_12368A3168,    7.98144,   -41.44,    7.98144,  -161.44,    7.98144,    78.56,          0,     0.00, 1.35603E-008,    74.05,    7.98144,   138.56,    7.98144,    18.56,    7.98144,  -101.44,          0,     0.00, 1.30717E-008,   -85.91
Line.L_CEI_MT_12369A3169,    7.98144,   -41.44,    7.98144,  -161.44,    7.98144,    78.56,          0,     0.00, 1.91997E-008,    50.91,    7.98144,   138.56,    7.98144,    18.56,    7.98144,  -101.44,          0,     0.00, 1.8083E-008,  -124.51
Line.L_CEI_MT_12370A6695,    7.98144,   -41.44,    7.98144,  -161.44,    7.98144,    78.56,          0,     0.00, 1.23026E-008,    60.52,    7.98144,   138.56,    7.98144,    18.56,    7.98144,  -101.44,          0,     0.00, 1.3892E-008,  -129.56
Line.L_CEI_MT_12371A3171,    7.98144,   -41.44,    7.98144,  -161.44,    7.98144,    78.56,          0,     0.00, 1.55073E-008,    48.65,    7.98144,   138.56,    7.98144,    18.56,    7.98144,  -101.44,          0,     0.00, 1.72358E-008,  -128.42
Line.L_CEI_MT_12372A6697,    7.98144,   -41.44,    7.98144,  -161.44,    7.98144,    78.56,          0,     0.00, 1.10392E-008,    62.35,    7.98144,   138.56,    7.98144,    18.56,    7.98144,  -101.44,          0,     0.00, 1.40086E-008,  -111.45
Line.L_CEI_MT_12373A3173,    7.98144,   -41.44,    7.98144,  -161.44,    7.98144,    78.56,          0,     0.00, 1.64042E-008,    55.41,    7.98144,   138.56,    7.98144,    18.56,    7.98144,  -101.44,          0,     0.00, 1.64042E-008,  -124.59
Line.L_CEI_MT_12374A6699,    7.98144,   -41.44,    7.98144,  -161.44,    7.98144,    78.56,          0,     0.00, 1.88578E-008,    57.09,    7.98144,   138.56,    7.98144,    18.56,    7.98144,  -101.44,          0,     0.00, 1.99312E-008,  -127.41
Line.L_CEI_MT_12375A3175,    7.98144,   -41.44,    7.98144,  -161.44,    7.98144,    78.56,          0,     0.00, 2.198E-008,    53.62,    7.98144,   138.56,    7.98144,    18.56,    7.98144,  -101.44,          0,     0.00, 2.63747E-008,  -132.14
Line.L_CEI_MT_12376A3176,    3.19262,   -41.44,    3.19262,  -161.44,    3.19262,    78.56,          0,     0.00, 1.26553E-006,  -103.56,    3.19262,   138.56,    3.19262,    18.56,    3.19262,  -101.44,          0,     0.00, 1.2635E-006,    76.47
Line.L_CEI_MT_12377A6702,    3.19262,   -41.44,    3.19262,  -161.44,    3.19262,    78.56,          0,     0.00, 9.37125E-009,    26.57,    3.19262,   138.56,    3.19262,    18.56,    3.19262,  -101.44,          0,     0.00, 8.5484E-009,  -150.64
Line.L_CEI_MT_12378A3178,    3.19262,   -41.44,    3.19262,  -161.44,    3.19262,    78.56,          0,     0.00, 5.6073E-009,    41.63,    3.19262,   138.56,    3.19262,    18.56,    3.19262,  -101.44,          0,     0.00, 8.74898E-009,  -154.80
Line.L_CEI_MT_12379A3179,    3.19262,   -41.44,    3.19262,  -161.44,    3.19262,    78.56,          0,     0.00, 6.48591E-009,    68.96,    3.19262,   138.56,    3.19262,    18.56,    3.19262,  -101.44,          0,     0.00, 6.07148E-009,   -94.40
Line.L_CEI_MT_12380A6705,    3.19262,   -41.44,    3.19262,  -161.44,    3.19262,    78.56,          0,     0.00, 4.00577E-009,   125.54,    3.19262,   138.56,    3.19262,    18.56,    3.19262,  -101.44,          0,     0.00, 8.6618E-009,   -36.25
Line.L_CEI_MT_12381A3181,    11.1741,   -41.44,    11.1741,  -161.44,    11.1741,    78.56,          0,     0.00, 1.25277E-006,  -103.13,    11.1741,   138.56,    11.1741,    18.56,    11.1741,  -101.44,          0,     0.00, 1.25165E-006,    76.90
Line.L_CEI_MT_12382A3182,    11.1741,   -41.44,    11.1741,  -161.44,    11.1741,    78.56,          0,     0.00, 1.2491E-006,  -102.97,    11.1741,   138.56,    11.1741,    18.56,    11.1741,  -101.44,          0,     0.00, 1.2504E-006,    77.15
Line.L_CEI_MT_12383A3183,    7.90486,   -41.44,    7.90486,  -161.44,    7.90486,    78.56,          0,     0.00, 1.39928E-006,   148.57,    7.90486,   138.56,    7.90486,    18.56,    7.90486,  -101.44,          0,     0.00, 1.39935E-006,   -31.36
Line.L_CEI_MT_12384A6709,    23.8681,   -41.44,    23.8681,  -161.44,    23.8681,    78.56,          0,     0.00, 1.41565E-006,   148.07,    23.8681,   138.56,    23.8681,    18.56,    23.8681,  -101.44,          0,     0.00, 1.41412E-006,   -31.91
Line.L_CEI_MT_12385A6710,    23.8681,   -41.44,    23.8681,  -161.44,    23.8681,    78.56,          0,     0.00, 1.41718E-006,   148.04,    23.8681,   138.56,    23.8681,    18.56,    23.8681,  -101.44,          0,     0.00, 1.41693E-006,   -31.95
Line.L_CEI_MT_12386A3186,    56.5917,   138.56,    56.5917,    18.56,    56.5917,  -101.44,          0,     0.00, 5.99117E-006,   104.94,    56.5917,   -41.44,    56.5917,  -161.44,    56.5917,    78.56,          0,     0.00, 5.99051E-006,   -75.05
Line.L_CEI_MT_12387A3187,    56.5917,   138.56,    56.5917,    18.56,    56.5917,  -101.44,          0,     0.00, 5.99593E-006,   105.08,    56.5917,   -41.44,    56.5917,  -161.44,    56.5917,    78.56,          0,     0.00, 5.99433E-006,   -74.93
Line.L_CEI_MT_12388A6713,    61.3809,   138.56,    61.3809,    18.56,    61.3809,  -101.44,          0,     0.00, 7.01949E-006,   114.85,    61.3809,   -41.44,    61.3809,  -161.44,    61.3809,    78.56,          0,     0.00, 7.0191E-006,   -65.15
Line.L_CEI_MT_12389A3189,    61.3809,   138.56,    61.3809,    18.56,    61.3809,  -101.44,          0,     0.00, 7.0187E-006,   114.79,    61.3809,   -41.44,    61.3809,  -161.44,    61.3809,    78.56,          0,     0.00, 7.01825E-006,   -65.20
Line.L_CEI_MT_12390A3190,    61.3809,   138.56,    61.3809,    18.56,    61.3809,  -101.44,          0,     0.00, 7.0136E-006,   114.87,    61.3809,   -41.44,    61.3809,  -161.44,    61.3809,    78.56,          0,     0.00, 7.01279E-006,   -65.14
Line.L_CEI_MT_12391A6716,    61.3809,   138.56,    61.3809,    18.56,    61.3809,  -101.44,          0,     0.00, 7.01932E-006,   114.79,    61.3809,   -41.44,    61.3809,  -161.44,    61.3809,    78.56,          0,     0.00, 7.01854E-006,   -65.23
Line.L_CEI_MT_12392A6717,    61.3809,   138.56,    61.3809,    18.56,    61.3809,  -101.44,          0,     0.00, 7.02137E-006,   114.85,    61.3809,   -41.44,    61.3809,  -161.44,    61.3809,    78.56,          0,     0.00, 7.02059E-006,   -65.16
Line.L_CEI_MT_12393A6718,    61.3809,   138.56,    61.3809,    18.56,    61.3809,  -101.44,          0,     0.00, 7.01718E-006,   114.86,    61.3809,   -41.44,    61.3809,  -161.44,    61.3809,    78.56,          0,     0.00, 7.01799E-006,   -65.14
Line.L_CEI_MT_11090A6557,    11.9616,   -41.44,    11.9616,  -161.44,    11.9616,    78.56,          0,     0.00, 1.82561E-008,    95.86,    11.9616,   138.56,    11.9616,    18.56,    11.9616,  -101.44,          0,     0.00, 1.90978E-008,   -88.60
Line.L_CEI_MT_11091A6558,    11.9616,   138.56,    11.9616,    18.56,    11.9616,  -101.44,          0,     0.00, 9.18428E-009,   -59.53,    11.9616,   -41.44,    11.9616,  -161.44,    11.9616,    78.56,          0,     0.00, 6.78013E-009,   105.95
Line.L_CEI_MT_11092A6559,    11.9616,   -41.44,    11.9616,  -161.44,    11.9616,    78.56,          0,     0.00, 1.63513E-008,   109.98,    11.9616,   138.56,    11.9616,    18.56,    11.9616,  -101.44,          0,     0.00, 1.95855E-008,   -61.61
Line.L_CEI_MT_11093A6927,    11.9616,   138.56,    11.9616,    18.56,    11.9616,  -101.44,          0,     0.00, 1.51107E-008,   -56.31,    11.9616,   -41.44,    11.9616,  -161.44,    11.9616,    78.56,          0,     0.00, 1.33345E-008,   114.78
Line.L_CEI_MT_11134A6560, 2.32831E-009,   -36.87, 2.0825E-009,  -153.43, 2.63418E-009,  -135.00,          0,     0.00, 4.58623E-009,  -113.96, 3.54637E-009,   156.80, 1.04125E-009,    63.43, 2.63418E-009,    45.00,          0,     0.00, 4.29318E-009,   102.53
Line.L_CEI_MT_11135A6561, 1.39698E-009,   -90.00, 2.63418E-009,  -135.00, 3.75428E-009,   -97.13,          0,     0.00, 7.36275E-009,  -108.43, 1.67897E-009,   123.69, 4.165E-009,    26.57, 3.75428E-009,    82.87,          0,     0.00, 7.70807E-009,    64.98
Line.L_CEI_MT_11136A6562, 4.165E-009,   -63.43, 2.0825E-009,  -153.43, 3.83994E-009,   -75.96,          0,     0.00, 8.43348E-009,   -83.66, 4.165E-009,   116.57, 2.50766E-009,    21.80, 4.165E-009,   116.57,          0,     0.00, 8.49752E-009,    99.46
Line.L_CEI_MT_12394A3194,    61.3809,   138.56,    61.3809,    18.56,    61.3809,  -101.44,          0,     0.00, 7.01594E-006,   114.86,    61.3809,   -41.44,    61.3809,  -161.44,    61.3809,    78.56,          0,     0.00, 7.01754E-006,   -65.13
Line.L_CEI_MT_12395A6720,    63.9316,   -41.44,    63.9316,  -161.44,    63.9316,    78.56,          0,     0.00, 4.86583E-006,   -51.27,    63.9316,   138.56,    63.9316,    18.56,    63.9316,  -101.44,          0,     0.00, 4.86277E-006,   128.70
Line.L_CEI_MT_12396A6721,    63.9316,   -41.44,    63.9316,  -161.44,    63.9316,    78.56,          0,     0.00, 4.87681E-006,   -51.24,    63.9316,   138.56,    63.9316,    18.56,    63.9316,  -101.44,          0,     0.00, 4.8747E-006,   128.73
Line.L_CEI_MT_12397A3197,    59.1422,   -41.44,    59.1422,  -161.44,    59.1422,    78.56,          0,     0.00, 3.62014E-006,   -62.65,    59.1422,   138.56,    59.1422,    18.56,    59.1422,  -101.44,          0,     0.00, 3.61889E-006,   117.35
Line.L_CEI_MT_12398A6723,    59.1422,   -41.44,    59.1422,  -161.44,    59.1422,    78.56,          0,     0.00, 3.62865E-006,   -62.69,    59.1422,   138.56,    59.1422,    18.56,    59.1422,  -101.44,          0,     0.00, 3.62779E-006,   117.28
Line.L_CEI_MT_12399A6724,    51.1601,   -41.44,    51.1601,  -161.44,    51.1601,    78.56,          0,     0.00, 3.16366E-006,   -79.59,    51.1601,   138.56,    51.1601,    18.56,    51.1601,  -101.44,          0,     0.00, 3.16049E-006,   100.38
Line.L_CEI_MT_12400A3200,    51.1601,   -41.44,    51.1601,  -161.44,    51.1601,    78.56,          0,     0.00, 3.16857E-006,   -79.66,    51.1601,   138.56,    51.1601,    18.56,    51.1601,  -101.44,          0,     0.00, 3.1679E-006,   100.37
Line.L_CEI_MT_12401A3201,    51.1601,   -41.44,    51.1601,  -161.44,    51.1601,    78.56,          0,     0.00, 3.17885E-006,   -79.72,    51.1601,   138.56,    51.1601,    18.56,    51.1601,  -101.44,          0,     0.00, 3.17906E-006,   100.35
Line.L_CEI_MT_12402A3202,    19.2324,   -41.44,    19.2324,  -161.44,    19.2324,    78.56,          0,     0.00, 3.20855E-006,   -79.28,    19.2324,   138.56,    19.2324,    18.56,    19.2324,  -101.44,          0,     0.00, 3.20838E-006,   100.71
Line.L_CEI_MT_12403A3203,    19.2324,   138.56,    19.2324,    18.56,    19.2324,  -101.44,          0,     0.00, 3.20895E-006,   100.67,    19.2324,   -41.44,    19.2324,  -161.44,    19.2324,    78.56,          0,     0.00, 3.20878E-006,   -79.35
Line.L_CEI_MT_12404A6729,    19.2324,   -41.44,    19.2324,  -161.44,    19.2324,    78.56,          0,     0.00, 3.21124E-006,   -79.34,    19.2324,   138.56,    19.2324,    18.56,    19.2324,  -101.44,          0,     0.00, 3.21304E-006,   100.70
Line.L_CEI_MT_12405A6730,    19.2324,   -41.44,    19.2324,  -161.44,    19.2324,    78.56,          0,     0.00, 3.21644E-006,   -79.34,    19.2324,   138.56,    19.2324,    18.56,    19.2324,  -101.44,          0,     0.00, 3.21788E-006,   100.71
Line.L_CEI_MT_12406A6731,    19.2324,   -41.44,    19.2324,  -161.44,    19.2324,    78.56,          0,     0.00, 3.2161E-006,   -79.37,    19.2324,   138.56,    19.2324,    18.56,    19.2324,  -101.44,          0,     0.00, 3.2159E-006,   100.66
Line.L_CEI_MT_12407A6732,    19.2324,   -41.44,    19.2324,  -161.44,    19.2324,    78.56,          0,     0.00, 3.22306E-006,   -79.25,    19.2324,   138.56,    19.2324,    18.56,    19.2324,  -101.44,          0,     0.00, 3.22358E-006,   100.80
Line.L_CEI_MT_12408A3208,    19.2324,   -41.44,    19.2324,  -161.44,    19.2324,    78.56,          0,     0.00, 2.12844E-006,   -64.95,    19.2324,   138.56,    19.2324,    18.56,    19.2324,  -101.44,          0,     0.00, 2.12838E-006,   115.10
Line.L_CEI_MT_12409A6734,    19.2324,   -41.44,    19.2324,  -161.44,    19.2324,    78.56,          0,     0.00, 2.12785E-006,   -64.99,    19.2324,   138.56,    19.2324,    18.56,    19.2324,  -101.44,          0,     0.00, 2.12636E-006,   115.04
Line.L_CEI_MT_12410A3210,    19.2324,   -41.44,    19.2324,  -161.44,    19.2324,    78.56,          0,     0.00, 2.13215E-006,   -64.92,    19.2324,   138.56,    19.2324,    18.56,    19.2324,  -101.44,          0,     0.00, 2.13097E-006,   115.01
Line.L_CEI_MT_12411A3211,    19.2324,   -41.44,    19.2324,  -161.44,    19.2324,    78.56,          0,     0.00, 2.13329E-006,   -64.79,    19.2324,   138.56,    19.2324,    18.56,    19.2324,  -101.44,          0,     0.00, 2.13131E-006,   115.09
Line.L_CEI_MT_12412A6737,     3.2692,   -41.44,     3.2692,  -161.44,     3.2692,    78.56,          0,     0.00, 2.14645E-006,   -64.84,     3.2692,   138.56,     3.2692,    18.56,     3.2692,  -101.44,          0,     0.00, 2.14645E-006,   115.16
Line.L_CEI_MT_12413A6738,     3.2692,   -41.44,     3.2692,  -161.44,     3.2692,    78.56,          0,     0.00, 2.14313E-006,   -64.85,     3.2692,   138.56,     3.2692,    18.56,     3.2692,  -101.44,          0,     0.00, 2.14353E-006,   115.17
Line.L_CEI_MT_12414A6739,    32.7236,   138.56,    32.7236,    18.56,    32.7236,  -101.44,          0,     0.00, 5.79969E-006,   112.78,    32.7236,   -41.44,    32.7236,  -161.44,    32.7236,    78.56,          0,     0.00, 5.79807E-006,   -67.26
Line.L_CEI_MT_12415A6740,    32.7236,   138.56,    32.7236,    18.56,    32.7236,  -101.44,          0,     0.00, 5.79486E-006,   112.79,    32.7236,   -41.44,    32.7236,  -161.44,    32.7236,    78.56,          0,     0.00, 5.79378E-006,   -67.24
Line.L_CEI_MT_12416A6741,    32.7236,   138.56,    32.7236,    18.56,    32.7236,  -101.44,          0,     0.00, 5.80062E-006,   112.77,    32.7236,   -41.44,    32.7236,  -161.44,    32.7236,    78.56,          0,     0.00, 5.80062E-006,   -67.23
Line.L_CEI_MT_12417A6742,    32.7236,   -41.44,    32.7236,  -161.44,    32.7236,    78.56,          0,     0.00, 4.84071E-006,   -58.18,    32.7236,   138.56,    32.7236,    18.56,    32.7236,  -101.44,          0,     0.00, 4.84071E-006,   121.82
Line.L_CEI_MT_12418A3218,    32.7236,   138.56,    32.7236,    18.56,    32.7236,  -101.44,          0,     0.00, 4.05302E-006,   134.91,    32.7236,   -41.44,    32.7236,  -161.44,    32.7236,    78.56,          0,     0.00, 4.05104E-006,   -45.12
Line.L_CEI_MT_12419A3219,    16.7608,   138.56,    16.7608,    18.56,    16.7608,  -101.44,          0,     0.00, 4.07018E-006,   134.72,    16.7608,   -41.44,    16.7608,  -161.44,    16.7608,    78.56,          0,     0.00, 4.06886E-006,   -45.26
Line.L_CEI_MT_12420A6745,    16.7608,   138.56,    16.7608,    18.56,    16.7608,  -101.44,          0,     0.00, 4.06624E-006,   134.71,    16.7608,   -41.44,    16.7608,  -161.44,    16.7608,    78.56,          0,     0.00, 4.06655E-006,   -45.26
Line.L_CEI_MT_12421A3221,    16.7608,   -41.44,    16.7608,  -161.44,    16.7608,    78.56,          0,     0.00, 4.07579E-006,   -45.30,    16.7608,   138.56,    16.7608,    18.56,    16.7608,  -101.44,          0,     0.00, 4.07513E-006,   134.69
Line.L_CEI_MT_12422A3222,    4.78881,   138.56,    4.78881,    18.56,    4.78881,  -101.44,          0,     0.00, 2.19503E-006,   148.36,    4.78881,   -41.44,    4.78881,  -161.44,    4.78881,    78.56,          0,     0.00, 2.19796E-006,   -31.58
Line.L_CEI_MT_12423A6748, 4.15842E-007,   -47.18, 1.31838E-006,   170.10, 8.37876E-007,    50.48,          0,     0.00, 7.45606E-007,   130.36, 4.15552E-007,   132.68, 1.3183E-006,    -9.88, 8.37876E-007,  -129.52,          0,     0.00, 7.45501E-007,   -49.53
Line.L_CEI_MT_12424A6749, 4.15794E-007,   133.00, 1.3177E-006,    -9.97, 8.42527E-007,  -129.51,          0,     0.00, 7.4724E-007,   -50.21, 4.16112E-007,   -46.95,  1.32E-006,   170.05, 8.40498E-007,    50.46,          0,     0.00, 7.47605E-007,   130.05
Line.L_CEI_MT_12425A3225,     11.972,   138.56,     11.972,    18.56,     11.972,  -101.44,          0,     0.00, 7.35562E-007,   131.61,     11.972,   -41.44,     11.972,  -161.44,     11.972,    78.56,          0,     0.00, 7.35562E-007,   -48.39
Line.L_CEI_MT_12426A3226,     11.972,   138.56,     11.972,    18.56,     11.972,  -101.44,          0,     0.00, 7.30653E-007,   130.79,     11.972,   -41.44,     11.972,  -161.44,     11.972,    78.56,          0,     0.00, 7.30653E-007,   -49.21
Line.L_CEI_MT_12427A3227,     11.972,   138.56,     11.972,    18.56,     11.972,  -101.44,          0,     0.00, 7.25902E-007,   130.58,     11.972,   -41.44,     11.972,  -161.44,     11.972,    78.56,          0,     0.00, 7.27821E-007,   -49.36
Line.L_CEI_MT_12428A6753, 4.15607E-007,   -47.50, 1.31733E-006,   170.00, 8.39954E-007,    50.31,          0,     0.00, 7.44156E-007,   130.18, 4.16237E-007,   132.60, 1.31657E-006,   -10.04, 8.40794E-007,  -129.56,          0,     0.00, 7.45694E-007,   -50.02
Line.L_CEI_MT_12429A3229, 4.16184E-007,   -47.22, 1.31852E-006,   170.18, 8.3758E-007,    50.50,          0,     0.00, 7.44439E-007,   130.54, 4.165E-007,   132.83, 1.3176E-006,    -9.83, 8.3758E-007,  -129.50,          0,     0.00, 7.43532E-007,   -49.55
Line.L_CEI_MT_12430A6755, 4.18744E-007,   -46.94, 1.31676E-006,   170.14, 8.44261E-007,    50.55,          0,     0.00, 7.43008E-007,   129.74, 4.17475E-007,   132.88, 1.31768E-006,    -9.85, 8.4367E-007,  -129.40,          0,     0.00, 7.45395E-007,   -50.04
Line.L_CEI_MT_12431A6756,    456.488,   138.56,    456.488,    18.56,    456.488,  -101.44,          0,     0.00, 4.2311E-005,   102.00,    456.488,   -41.44,    456.488,  -161.44,    456.488,    78.56,          0,     0.00, 4.23103E-005,   -78.00
Line.L_CEI_MT_12432A6757,    456.488,   138.56,    456.488,    18.56,    456.488,  -101.44,          0,     0.00, 4.23131E-005,   102.00,    456.488,   -41.44,    456.488,  -161.44,    456.488,    78.56,          0,     0.00, 4.2317E-005,   -78.00
Line.L_CEI_MT_12433A6758,    456.488,   138.56,    456.488,    18.56,    456.488,  -101.44,          0,     0.00, 4.23095E-005,   101.99,    456.488,   -41.44,    456.488,  -161.44,    456.488,    78.56,          0,     0.00, 4.23111E-005,   -78.00
Line.L_CEI_MT_12434A3234,    456.488,   -41.44,    456.488,  -161.44,    456.488,    78.56,          0,     0.00, 4.23178E-005,   -78.01,    456.488,   138.56,    456.488,    18.56,    456.488,  -101.44,          0,     0.00, 4.23149E-005,   101.99
Line.L_CEI_MT_12435A6760,    448.503,   -41.44,    448.503,  -161.44,    448.503,    78.56,          0,     0.00, 4.19869E-005,   -79.44,    448.503,   138.56,    448.503,    18.56,    448.503,  -101.44,          0,     0.00, 4.19892E-005,   100.56
Line.L_CEI_MT_12436A6761,    448.503,   138.56,    448.503,    18.56,    448.503,  -101.44,          0,     0.00, 4.19963E-005,   100.56,    448.503,   -41.44,    448.503,  -161.44,    448.503,    78.56,          0,     0.00, 4.19967E-005,   -79.44
Line.L_CEI_MT_12437A3237,    448.503,   -41.44,    448.503,  -161.44,    448.503,    78.56,          0,     0.00, 4.1997E-005,   -79.44,    448.503,   138.56,    448.503,    18.56,    448.503,  -101.44,          0,     0.00, 4.1997E-005,   100.56
Line.L_CEI_MT_12438A3238,    174.805,   -41.44,    174.805,  -161.44,    174.805,    78.56,          0,     0.00, 1.65826E-005,   -54.44,    174.805,   138.56,    174.805,    18.56,    174.805,  -101.44,          0,     0.00, 1.65831E-005,   125.57
Line.L_CEI_MT_12439A3239,    49.4929,   138.56,    49.4929,    18.56,    49.4929,  -101.44,          0,     0.00, 3.55824E-006,   165.21,    49.4929,   -41.44,    49.4929,  -161.44,    49.4929,    78.56,          0,     0.00, 3.5562E-006,   -14.79
Line.L_CEI_MT_12440A6765, 9.31323E-010,    90.00, 1.31709E-009,    45.00, 2.32831E-009,   -53.13,          0,     0.00, 2.32831E-009,     0.00, 1.47255E-009,   -71.57, 6.58545E-010,    45.00, 2.32831E-009,   126.87,          0,     0.00, 1.04125E-009,   116.57
Line.L_CEI_MT_12441A6766,    125.312,   -41.44,    125.312,  -161.44,    125.312,    78.56,          0,     0.00, 1.40363E-005,   -63.78,    125.312,   138.56,    125.312,    18.56,    125.312,  -101.44,          0,     0.00, 1.4038E-005,   116.22
Line.L_CEI_MT_12442A6767,    125.312,   138.56,    125.312,    18.56,    125.312,  -101.44,          0,     0.00, 1.30896E-005,   119.85,    125.312,   -41.44,    125.312,  -161.44,    125.312,    78.56,          0,     0.00, 1.30892E-005,   -60.15
Line.L_CEI_MT_12443A3243,    125.312,   138.56,    125.312,    18.56,    125.312,  -101.44,          0,     0.00, 1.30869E-005,   119.82,    125.312,   -41.44,    125.312,  -161.44,    125.312,    78.56,          0,     0.00, 1.30885E-005,   -60.17
Line.L_CEI_MT_12444A3244,    95.7835,   138.56,    95.7835,    18.56,    95.7835,  -101.44,          0,     0.00, 1.14163E-005,    60.16,    95.7835,   -41.44,    95.7835,  -161.44,    95.7835,    78.56,          0,     0.00, 1.14185E-005,  -119.84
Line.L_CEI_MT_12445A6770,    95.7835,   138.56,    95.7835,    18.56,    95.7835,  -101.44,          0,     0.00, 1.02081E-005,    58.13,    95.7835,   -41.44,    95.7835,  -161.44,    95.7835,    78.56,          0,     0.00, 1.0209E-005,  -121.88
Line.L_CEI_MT_12446A6771,    95.7835,   138.56,    95.7835,    18.56,    95.7835,  -101.44,          0,     0.00, 1.02073E-005,    58.15,    95.7835,   -41.44,    95.7835,  -161.44,    95.7835,    78.56,          0,     0.00, 1.02065E-005,  -121.86
Line.L_CEI_MT_12447A6772,    95.7835,   138.56,    95.7835,    18.56,    95.7835,  -101.44,          0,     0.00, 1.02042E-005,    58.11,    95.7835,   -41.44,    95.7835,  -161.44,    95.7835,    78.56,          0,     0.00, 1.02061E-005,  -121.90
Line.L_CEI_MT_12448A6773,    87.8008,   -41.44,    87.8008,  -161.44,    87.8008,    78.56,          0,     0.00, 9.52987E-006,  -128.24,    87.8008,   138.56,    87.8008,    18.56,    87.8008,  -101.44,          0,     0.00, 9.52836E-006,    51.77
Line.L_CEI_MT_12449A6774,    7.98261,   138.56,    7.98261,    18.56,    7.98261,  -101.44,          0,     0.00, 1.02551E-008,   -87.40,    7.98261,   -41.44,    7.98261,  -161.44,    7.98261,    78.56,          0,     0.00, 1.00522E-008,   103.39
Line.L_CEI_MT_12450A6775,    7.98261,   138.56,    7.98261,    18.56,    7.98261,  -101.44,          0,     0.00, 1.45775E-008,   -63.43,    7.98261,   -41.44,    7.98261,  -161.44,    7.98261,    78.56,          0,     0.00, 1.65817E-008,   128.16
Line.L_CEI_MT_12451A3388,    7.98261,   -41.44,    7.98261,  -161.44,    7.98261,    78.56,          0,     0.00, 1.62448E-008,   117.30,    7.98261,   138.56,    7.98261,    18.56,    7.98261,  -101.44,          0,     0.00, 1.29383E-008,   -59.74
Line.L_CEI_MT_12452A6776,    79.8182,   138.56,    79.8182,    18.56,    79.8182,  -101.44,          0,     0.00, 9.53709E-006,    51.77,    79.8182,   -41.44,    79.8182,  -161.44,    79.8182,    78.56,          0,     0.00, 9.53897E-006,  -128.23
Line.L_CEI_MT_12453A6777,    177.914,   -41.43,    177.914,  -161.43,    177.914,    78.57,          0,     0.00, 1.82731E-005,   -78.23,    177.914,   138.57,    177.914,    18.57,    177.914,  -101.43,          0,     0.00, 1.82726E-005,   101.78
Line.L_CEI_MT_12454A3253,    177.914,   138.57,    177.914,    18.57,    177.914,  -101.43,          0,     0.00, 1.82676E-005,   101.80,    177.914,   -41.43,    177.914,  -161.43,    177.914,    78.57,          0,     0.00, 1.82681E-005,   -78.20
Line.L_CEI_MT_12455A6779,    177.914,   138.57,    177.914,    18.57,    177.914,  -101.43,          0,     0.00, 1.71343E-005,   103.65,    177.914,   -41.43,    177.914,  -161.43,    177.914,    78.57,          0,     0.00, 1.71343E-005,   -76.36
Line.L_CEI_MT_12456A3255,    177.914,   138.57,    177.914,    18.57,    177.914,  -101.43,          0,     0.00, 1.71315E-005,   103.63,    177.914,   -41.43,    177.914,  -161.43,    177.914,    78.57,          0,     0.00, 1.71315E-005,   -76.37
Line.L_CEI_MT_12457A3256,    177.914,   -41.43,    177.914,  -161.43,    177.914,    78.57,          0,     0.00, 1.71295E-005,   -76.39,    177.914,   138.57,    177.914,    18.57,    177.914,  -101.43,          0,     0.00, 1.71301E-005,   103.61
Line.L_CEI_MT_12458A6782,    169.932,   138.57,    169.932,    18.57,    169.932,  -101.43,          0,     0.00, 1.71364E-005,   103.62,    169.932,   -41.43,    169.932,  -161.43,    169.932,    78.57,          0,     0.00, 1.71368E-005,   -76.38
Line.L_CEI_MT_12459A6783,    169.932,   138.57,    169.932,    18.57,    169.932,  -101.43,          0,     0.00, 1.71421E-005,   103.61,    169.932,   -41.43,    169.932,  -161.43,    169.932,    78.57,          0,     0.00, 1.71419E-005,   -76.39
Line.L_CEI_MT_12460A3259,    169.932,   138.57,    169.932,    18.57,    169.932,  -101.43,          0,     0.00, 1.71394E-005,   103.60,    169.932,   -41.43,    169.932,  -161.43,    169.932,    78.57,          0,     0.00, 1.71383E-005,   -76.41
Line.L_CEI_MT_12461A6785,    169.932,   -41.43,    169.932,  -161.43,    169.932,    78.57,          0,     0.00, 1.71424E-005,   -76.41,    169.932,   138.57,    169.932,    18.57,    169.932,  -101.43,          0,     0.00, 1.71423E-005,   103.60
Line.L_CEI_MT_12462A3261,    1.59619,   138.56,    1.59619,    18.56,    1.59619,  -101.44,          0,     0.00, 6.78013E-009,   -74.05,    1.59619,   -41.44,    1.59619,  -161.44,    1.59619,    78.56,          0,     0.00, 5.66501E-009,    99.46
Line.L_CEI_MT_12463A3262,    168.336,   138.57,    168.336,    18.57,    168.336,  -101.43,          0,     0.00, 1.58639E-005,   102.81,    168.336,   -41.43,    168.336,  -161.43,    168.336,    78.57,          0,     0.00, 1.58648E-005,   -77.19
Line.L_CEI_MT_12464A3263,    168.336,   138.57,    168.336,    18.57,    168.336,  -101.43,          0,     0.00, 1.58667E-005,   102.80,    168.336,   -41.43,    168.336,  -161.43,    168.336,    78.57,          0,     0.00, 1.58669E-005,   -77.20
Line.L_CEI_MT_12465A3264,    168.336,   138.57,    168.336,    18.57,    168.336,  -101.43,          0,     0.00, 1.58687E-005,   102.78,    168.336,   -41.43,    168.336,  -161.43,    168.336,    78.57,          0,     0.00, 1.58681E-005,   -77.23
Line.L_CEI_MT_12466A3265,    168.336,   138.57,    168.336,    18.57,    168.336,  -101.43,          0,     0.00, 1.5865E-005,   102.79,    168.336,   -41.43,    168.336,  -161.43,    168.336,    78.57,          0,     0.00, 1.58675E-005,   -77.22
Line.L_CEI_MT_12467A6791,    168.336,   138.57,    168.336,    18.57,    168.336,  -101.43,          0,     0.00, 1.58623E-005,   102.77,    168.336,   -41.43,    168.336,  -161.43,    168.336,    78.57,          0,     0.00, 1.58634E-005,   -77.23
Line.L_CEI_MT_12468A3267,    168.336,   138.57,    168.336,    18.57,    168.336,  -101.43,          0,     0.00, 1.58623E-005,   102.77,    168.336,   -41.43,    168.336,  -161.43,    168.336,    78.57,          0,     0.00, 1.58618E-005,   -77.23
Line.L_CEI_MT_12469A6793,    168.336,   138.57,    168.336,    18.57,    168.336,  -101.43,          0,     0.00, 1.47378E-005,   104.99,    168.336,   -41.43,    168.336,  -161.43,    168.336,    78.57,          0,     0.00, 1.47368E-005,   -75.01
Line.L_CEI_MT_12470A6794,    168.336,   138.57,    168.336,    18.57,    168.336,  -101.43,          0,     0.00, 1.39211E-005,   112.56,    168.336,   -41.43,    168.336,  -161.43,    168.336,    78.57,          0,     0.00, 1.39206E-005,   -67.43
Line.L_CEI_MT_12471A6795,    168.336,   138.57,    168.336,    18.57,    168.336,  -101.43,          0,     0.00, 1.39168E-005,   112.55,    168.336,   -41.43,    168.336,  -161.43,    168.336,    78.57,          0,     0.00, 1.392E-005,   -67.47
Line.L_CEI_MT_12472A6796,    168.336,   138.57,    168.336,    18.57,    168.336,  -101.43,          0,     0.00, 1.39271E-005,   112.54,    168.336,   -41.43,    168.336,  -161.43,    168.336,    78.57,          0,     0.00, 1.39263E-005,   -67.47
Line.L_CEI_MT_12473A3272,    43.8791,   138.57,    43.8791,    18.57,    43.8791,  -101.43,          0,     0.00, 2.80534E-006,   117.27,    43.8791,   -41.43,    43.8791,  -161.43,    43.8791,    78.57,          0,     0.00, 2.8074E-006,   -62.78
Line.L_CEI_MT_12474A6798,    43.8791,   -41.43,    43.8791,  -161.43,    43.8791,    78.57,          0,     0.00, 2.80439E-006,   -62.96,    43.8791,   138.57,    43.8791,    18.57,    43.8791,  -101.43,          0,     0.00, 2.80377E-006,   117.06
Line.L_CEI_MT_12475A6799,    43.8791,   -41.43,    43.8791,  -161.43,    43.8791,    78.57,          0,     0.00, 2.01963E-006,   -38.48,    43.8791,   138.57,    43.8791,    18.57,    43.8791,  -101.43,          0,     0.00, 2.01941E-006,   141.54
Line.L_CEI_MT_12476A6800,    35.9009,   -41.43,    35.9009,  -161.43,    35.9009,    78.57,          0,     0.00, 1.24462E-006,   -67.15,    35.9009,   138.57,    35.9009,    18.57,    35.9009,  -101.43,          0,     0.00, 1.24516E-006,   112.91
Line.L_CEI_MT_12477A6801,    35.9009,   -41.43,    35.9009,  -161.43,    35.9009,    78.57,          0,     0.00, 1.24529E-006,   -67.18,    35.9009,   138.57,    35.9009,    18.57,    35.9009,  -101.43,          0,     0.00, 1.24315E-006,   112.86
Line.L_CEI_MT_12478A6802,    35.9009,   138.57,    35.9009,    18.57,    35.9009,  -101.43,          0,     0.00, 1.24206E-006,   112.74,    35.9009,   -41.43,    35.9009,  -161.43,    35.9009,    78.57,          0,     0.00, 1.24414E-006,   -67.25
Line.L_CEI_MT_124790A7006,    23.9339,   -41.43,    23.9339,  -161.43,    23.9339,    78.57,          0,     0.00, 3.16444E-008,   122.99,    23.9339,   138.57,    23.9339,    18.57,    23.9339,  -101.43,          0,     0.00, 3.1514E-008,   -55.84
Line.L_CEI_MT_12479A6803,     11.967,   -41.43,     11.967,  -161.43,     11.967,    78.57,          0,     0.00, 2.44372E-008,   120.96,     11.967,   138.57,     11.967,    18.57,     11.967,  -101.43,          0,     0.00, 2.19652E-008,   -57.99
Line.L_CEI_MT_12480A3279, 1.47255E-009,    71.57, 4.95005E-009,   131.19, 6.78013E-009,   164.05,          0,     0.00, 1.16415E-008,   143.13, 1.04125E-009,  -116.57, 3.63693E-009,   -50.19, 6.33368E-009,   -17.10,          0,     0.00, 9.68978E-009,   -35.22
Line.L_CEI_MT_12481A3458, 4.65661E-010,    90.00, 1.31709E-009,    45.00, 2.0825E-009,    63.43,          0,     0.00, 3.75428E-009,    60.26, 4.65661E-010,   180.00, 6.58545E-010,  -135.00, 9.31323E-010,   180.00,          0,     0.00, 1.91997E-009,  -165.96
Line.L_CEI_MT_12481A7007, 6.58545E-010,   -45.00, 6.58545E-010,    45.00, 9.31323E-010,   180.00,          0,     0.00,          0,     0.00, 1.04125E-009,   116.57, 6.58545E-010,    45.00, 2.0825E-009,    63.43,          0,     0.00, 3.39007E-009,    74.05
Line.L_CEI_MT_12482A3280,          0,     0.00, 2.9451E-009,  -161.57,          0,     0.00,          0,     0.00, 2.9451E-009,  -161.57, 1.47255E-009,   161.57, 9.31323E-010,    90.00, 9.31323E-010,     0.00,          0,     0.00, 1.47255E-009,   108.43
Line.L_CEI_MT_14781A3459,    15.9656,   -41.44,    15.9656,  -161.44,    15.9656,    78.56,          0,     0.00, 8.19281E-007,   -60.81,    15.9656,   138.56,    15.9656,    18.56,    15.9656,  -101.44,          0,     0.00, 8.21104E-007,   119.41
Line.L_CEI_MT_14782A7009,     23.948,   -41.44,     23.948,  -161.44,     23.948,    78.56,          0,     0.00, 1.26749E-006,    79.69,     23.948,   138.56,     23.948,    18.56,     23.948,  -101.44,          0,     0.00, 1.26783E-006,  -100.39
Line.L_CEI_MT_14783A6998,     23.948,   138.56,     23.948,    18.56,     23.948,  -101.44,          0,     0.00, 2.82868E-008,   -69.78,     23.948,   -41.44,     23.948,  -161.44,     23.948,    78.56,          0,     0.00, 2.75371E-008,   108.74
Line.L_CEI_MT_14784A6999,     23.948,   -41.44,     23.948,  -161.44,     23.948,    78.56,          0,     0.00, 2.97149E-008,   122.20,     23.948,   138.56,     23.948,    18.56,     23.948,  -101.44,          0,     0.00, 3.02214E-008,   -56.31
Line.L_CEI_MT_14785A7010,     23.948,   138.56,     23.948,    18.56,     23.948,  -101.44,          0,     0.00, 2.06787E-008,   -54.16,     23.948,   -41.44,     23.948,  -161.44,     23.948,    78.56,          0,     0.00, 2.21226E-008,   130.73
Line.L_CEI_MT_14786A3462,    7.98272,   -41.44,    7.98272,  -161.44,    7.98272,    78.56,          0,     0.00, 6.07148E-009,    94.40,    7.98272,   138.56,    7.98272,    18.56,    7.98272,  -101.44,          0,     0.00, 6.48591E-009,   -68.96
Line.L_CEI_MT_14787A3368,    7.98272,   138.56,    7.98272,    18.56,    7.98272,  -101.44,          0,     0.00, 1.45849E-008,   -73.30,    7.98272,   -41.44,    7.98272,  -161.44,    7.98272,    78.56,          0,     0.00, 1.40935E-008,    97.59
...
Line.SW_FZ2089_DP_2461, 4.76837E-007,    90.00, 3.37175E-007,   -45.00, 5.3312E-007,  -116.57,          0,     0.00, 2.38419E-007,   -90.00, 9.83025E-007,   165.96, 6.7435E-007,   135.00, 5.3312E-007,    63.43,          0,     0.00, 1.68587E-006,   135.00
Line.SW_FW7828,    16.7541,   138.57,    16.7541,    18.57,    16.7541,  -101.43,          0,     0.00, 3.6393E-006,    58.39,    16.7541,   -41.43,    16.7541,  -161.43,    16.7541,    78.57,          0,     0.00, 3.94653E-006,  -115.02
Line.SW_FA7557, 1.59936E-006,   116.57, 2.02656E-006,   -28.07, 9.83025E-007,  -104.04,          0,     0.00, 9.61096E-007,   -29.74, 1.92219E-006,   -60.26, 1.3328E-006,   116.57, 9.83025E-007,   104.04,          0,     0.00, 4.91512E-007,    75.96
Line.SW_2211T_SCN, 1.45024E-006,    80.54, 2.02305E-006,   -45.00, 6.7435E-007,   -45.00,          0,     0.00, 2.19811E-006,   -12.53, 1.52662E-006,   -38.66, 1.28392E-006,   158.20, 9.53674E-007,   -90.00,          0,     0.00, 1.43051E-006,   -90.00
Line.SW_2221T_SCN, 1.45024E-006,    80.54, 2.02305E-006,   -45.00, 6.7435E-007,   -45.00,          0,     0.00, 2.19811E-006,   -12.53, 1.52662E-006,   -38.66, 1.28392E-006,   158.20, 9.53674E-007,   -90.00,          0,     0.00, 1.43051E-006,   -90.00
Line.SW_2235_SCN, 1.81965E-006,  -148.39, 6.41962E-007,   158.20, 1.71926E-006,   -56.31,          0,     0.00, 2.45467E-006,  -119.05, 1.26721E-006,    48.81, 1.6038E-006,   -48.01, 1.50789E-006,   161.57,          0,     0.00, 5.3312E-007,    26.57
Line.SW_2055_SCN, 1.06624E-006,  -153.43,          0,     0.00, 2.38419E-007,   180.00,          0,     0.00, 1.28392E-006,  -158.20, 9.83025E-007,   104.04, 1.50789E-006,   -18.43, 2.38419E-007,   180.00,          0,     0.00, 1.06624E-006,    26.57
Line.SW_FT3821, 1.52662E-006,   141.34, 2.6789E-006,   -20.85, 1.45024E-006,   -80.54,          0,     0.00, 2.10903E-006,   -42.71, 6.7435E-007,   -45.00, 2.04053E-006,   173.29, 7.15256E-007,   180.00,          0,     0.00, 2.27749E-006,  -173.99
Line.SW_FT3567_DP_19492,    4.79319,   138.55,    4.79319,    18.55,    4.79319,  -101.45,          0,     0.00, 1.78814E-006,   180.00,    4.79319,   -41.45,    4.79319,  -161.45,    4.79319,    78.55,          0,     0.00, 1.45513E-006,    55.01
Line.SW_FA7196, 1.24458E-006,   106.70, 1.43547E-006,   -41.63, 1.06624E-006,  -153.43,          0,     0.00, 3.37175E-007,  -135.00, 7.9968E-007,   -63.43, 2.90294E-006,   160.82, 6.7435E-007,    45.00,          0,     0.00, 2.03705E-006,   159.44
Line.SW_2393_SCN, 1.3487E-006,  -135.00, 2.63342E-006,   174.81, 1.96605E-006,    75.96,          0,     0.00, 3.32079E-006,   158.96, 1.71926E-006,    33.69, 3.13591E-006,    -8.75, 3.01578E-006,  -108.43,          0,     0.00, 4.29815E-006,   -33.69
Line.SW_FZ4474_DP_19774, 6.7435E-007,    45.00, 9.53674E-007,     0.00, 8.5963E-007,  -146.31,          0,     0.00, 7.15256E-007,     0.00, 6.7435E-007,  -135.00, 7.53946E-007,   161.57, 1.19209E-006,    53.13,          0,     0.00, 8.5963E-007,   123.69
Line.SW_FZ6242, 1.67318E-006,    85.91, 2.14908E-006,   -33.69, 4.76837E-007,     0.00,          0,     0.00, 2.4314E-006,    11.31, 1.24458E-006,   -73.30, 1.62142E-006,   143.97, 9.83025E-007,   104.04,          0,     0.00, 1.39021E-006,   149.04
Line.SW_CO1_SCN, 4.29815E-007,   -33.69, 2.98023E-006,     0.00, 9.53674E-007,   -90.00,          0,     0.00, 3.54435E-006,   -19.65, 5.96046E-007,   126.87, 2.51472E-006,  -174.56, 9.53674E-007,    90.00,          0,     0.00, 3.09944E-006,   157.38
Line.SW_FT3565, 3.37175E-007,  -135.00, 1.68587E-006,     8.13, 6.7435E-007,  -135.00,          0,     0.00, 1.06624E-006,   -26.57, 6.7435E-007,   135.00, 1.2157E-006,  -168.69, 4.76837E-007,    90.00,          0,     0.00, 1.81574E-006,   156.80
Line.SW_FT3766, 8.34465E-007,   180.00, 1.62142E-006,   -17.10, 1.19209E-006,    53.13,          0,     0.00, 1.50789E-006,    18.43, 4.91512E-007,   104.04, 1.09906E-006,   167.47, 2.38419E-007,   180.00,          0,     0.00, 1.59936E-006,   153.43
Line.SW_FZ6473,    4.78477,   138.56,    4.78477,    18.56,    4.78477,  -101.44,          0,     0.00, 4.29815E-007,    33.69,    4.78477,   -41.44,    4.78477,  -161.44,    4.78477,    78.56,          0,     0.00, 8.34465E-007,   180.00
Line.SW_FZ9479,     23.948,   138.56,     23.948,    18.56,     23.948,  -101.44,          0,     0.00, 7.15256E-007,   180.00,     23.948,   -41.44,     23.948,  -161.44,     23.948,    78.56,          0,     0.00, 1.06624E-006,    63.43
Line.SW_FZ6241, 7.63312E-007,    38.66, 2.19811E-006,   -12.53,          0,     0.00,          0,     0.00, 2.74181E-006,     0.00, 1.28945E-006,   146.31, 1.28392E-006,   158.20, 1.3487E-006,   135.00,          0,     0.00, 3.86834E-006,   146.31
Line.SW_FZ6608, 4.91512E-007,    75.96, 1.39531E-006,   -19.98, 1.3487E-006,  -135.00,          0,     0.00, 1.06624E-006,   -63.43, 1.17408E-006,   156.04, 1.09906E-006,   139.40, 6.7435E-007,   -45.00,          0,     0.00, 1.59936E-006,   153.43
Line.SW_FP7957, 1.28392E-006,   111.80, 1.56795E-006,    -8.75, 2.38419E-007,   180.00,          0,     0.00, 1.26721E-006,    48.81, 2.38419E-007,   -90.00, 5.96046E-007,   126.87, 5.3312E-007,   116.57,          0,     0.00, 9.31054E-007,   129.81
Line.SW_FT3793, 1.06624E-006,   116.57, 2.53442E-006,   -41.19, 4.76837E-007,   -90.00,          0,     0.00, 1.86211E-006,   -39.81, 7.15256E-007,     0.00, 1.59936E-006,   153.43, 5.3312E-007,   116.57,          0,     0.00, 1.52662E-006,   128.66
Line.SW_FT3794,     102.08,   138.56,     102.08,    18.56,     102.08,  -101.44,          0,     0.00, 1.08579E-005,    70.77,     102.08,   -41.44,     102.08,  -161.44,     102.08,    78.56,          0,     0.00, 1.03513E-005,  -104.68
Line.SW_2019_SCN, 2.48916E-006,    16.70, 3.09944E-006,   -22.62, 4.35073E-006,   -99.46,          0,     0.00, 6.57707E-006,   -46.47, 2.19811E-006,  -167.47, 2.56785E-006,   158.20, 3.33786E-006,    90.00,          0,     0.00, 5.92219E-006,   139.90
Line.SW_2093_SCN, 2.88329E-006,   150.26, 7.2522E-006,   154.70, 1.24184E-005,    86.70,          0,     0.00, 1.88728E-005,   116.24, 2.48058E-006,   -35.22, 9.46269E-006,   -19.12, 1.24549E-005,   -95.49,          0,     0.00, 1.95474E-005,   -60.00
Line.SW_CO2_SCN, 4.29815E-007,   -33.69, 2.98023E-006,     0.00, 9.53674E-007,   -90.00,          0,     0.00, 3.54435E-006,   -19.65, 5.96046E-007,   126.87, 2.51472E-006,  -174.56, 9.53674E-007,    90.00,          0,     0.00, 3.09944E-006,   157.38
Line.SW_FA9015, 5.3312E-007,   116.57, 9.31054E-007,   -50.19, 1.19209E-006,   126.87,          0,     0.00, 7.9968E-007,   116.57, 6.7435E-007,  -135.00, 1.43547E-006,   138.37, 5.3312E-007,  -116.57,          0,     0.00, 1.78814E-006,   180.00
Line.SW_FP7931, 1.90735E-006,    90.00, 2.15897E-006,    -6.34, 1.50789E-006,  -108.43,          0,     0.00, 1.68587E-006,     8.13, 2.34815E-006,   -66.04, 1.06624E-006,   153.43, 2.38419E-007,   180.00,          0,     0.00, 1.68587E-006,   -98.13
Line.SW_FW6658, 7.53946E-007,    71.57, 2.91027E-006,   -34.99, 9.53674E-007,   180.00,          0,     0.00, 1.92219E-006,   -29.74, 7.53946E-007,    18.43, 1.52662E-006,   128.66, 9.53674E-007,   -90.00,          0,     0.00, 5.3312E-007,   116.57
Line.SW_FZ1559, 1.2157E-006,   168.69, 1.50789E-006,   -18.43, 1.43051E-006,   -90.00,          0,     0.00, 1.68587E-006,   -81.87, 6.7435E-007,    45.00, 1.39021E-006,   149.04, 4.76837E-007,   -90.00,          0,     0.00, 1.01152E-006,   135.00
Line.SW_FA7556, 1.28392E-006,  -158.20, 4.76837E-007,     0.00, 4.76837E-007,   180.00,          0,     0.00, 1.28392E-006,  -158.20, 2.38419E-007,     0.00, 1.19209E-006,   180.00, 4.76837E-007,     0.00,          0,     0.00, 4.76837E-007,   180.00
Line.SW_FA1041, 1.28945E-006,    33.69, 2.14908E-006,   -33.69, 4.76837E-007,   180.00,          0,     0.00, 2.4314E-006,   -11.31, 6.41962E-007,  -158.20, 1.81965E-006,   148.39, 4.76837E-007,   -90.00,          0,     0.00, 2.15897E-006,   173.66
Line.SW_FZ5567, 5.3312E-007,    63.43, 9.83025E-007,   -14.04, 5.3312E-007,  -116.57,          0,     0.00, 9.83025E-007,   -14.04, 2.38419E-007,     0.00, 1.06624E-006,   153.43, 5.3312E-007,    63.43,          0,     0.00, 1.06624E-006,   116.57
Line.SW_2373_SCN, 1.96605E-006,   -14.04, 9.35014E-006,   -19.36, 1.31195E-005,  -109.09,          0,     0.00, 1.72223E-005,   -68.05, 1.96605E-006,   165.96, 6.86463E-006,   159.68, 1.17963E-005,    75.96,          0,     0.00, 1.53201E-005,   110.97
Line.SW_FZ7141,    7.93804,   138.59,    7.93804,    18.59,    7.93804,  -101.41,          0,     0.00, 8.5963E-007,   -33.69,    7.93804,   -41.41,    7.93804,  -161.41,    7.93804,    78.59,          0,     0.00, 2.38419E-007,     0.00
Line.SW_FU0196,    49.4929,   138.56,    49.4929,    18.56,    49.4929,  -101.44,          0,     0.00, 4.93964E-006,   171.67,    49.4929,   -41.44,    49.4929,  -161.44,    49.4929,    78.56,          0,     0.00, 3.25378E-006,    -8.43
Line.SW_FZ4170, 9.61096E-007,    29.74, 1.50789E-006,   -18.43, 5.3312E-007,   116.57,          0,     0.00, 2.0819E-006,    13.24, 4.29815E-007,   146.31, 9.53674E-007,   180.00, 2.38419E-007,   180.00,          0,     0.00, 1.56795E-006,   171.25
Line.SW_FZ4368_DP_2822,    7.98175,   138.56,    7.98175,    18.56,    7.98175,  -101.44,          0,     0.00, 1.19209E-006,   -53.13,    7.98175,   -41.44,    7.98175,  -161.44,    7.98175,    78.56,          0,     0.00, 7.15256E-007,    90.00
...